SUMMARY OF JOB INFORMATION
  STEP      INC     ATT  ITRS     TOT TIME     STEP TIME      INC TIME
     1          1     1     2  0.100000E-01  0.100000E-01  0.100000E-01
     1          1     2     2  0.100000E-01  0.100000E-01  0.100000E-01
     1          1     2     2  0.100000E-01  0.100000E-01  0.100000E-01
     1          1     2     2  0.100000E-01  0.100000E-01  0.100000E-01
     1          1     2     2  0.100000E-01  0.100000E-01  0.100000E-01
     1          2     1     2  0.200000E-01  0.200000E-01  0.100000E-01
     1          2     2     2  0.200000E-01  0.200000E-01  0.100000E-01
     1          2     2     2  0.200000E-01  0.200000E-01  0.100000E-01
     1          2     2     2  0.200000E-01  0.200000E-01  0.100000E-01
     1          2     2     2  0.200000E-01  0.200000E-01  0.100000E-01
     1          3     1     2  0.300000E-01  0.300000E-01  0.100000E-01
     1          3     2     2  0.300000E-01  0.300000E-01  0.100000E-01
     1          3     2     2  0.300000E-01  0.300000E-01  0.100000E-01
     1          3     2     2  0.300000E-01  0.300000E-01  0.100000E-01
     1          4     1     2  0.400000E-01  0.400000E-01  0.100000E-01
     1          4     2     2  0.400000E-01  0.400000E-01  0.100000E-01
     1          4     2     2  0.400000E-01  0.400000E-01  0.100000E-01
     1          4     2     2  0.400000E-01  0.400000E-01  0.100000E-01
     1          5     1     2  0.500000E-01  0.500000E-01  0.100000E-01
     1          5     2     2  0.500000E-01  0.500000E-01  0.100000E-01
     1          5     2     2  0.500000E-01  0.500000E-01  0.100000E-01
     1          5     2     2  0.500000E-01  0.500000E-01  0.100000E-01
     1          6     1     2  0.600000E-01  0.600000E-01  0.100000E-01
     1          6     2     2  0.600000E-01  0.600000E-01  0.100000E-01
     1          6     2     2  0.600000E-01  0.600000E-01  0.100000E-01
     1          6     2     2  0.600000E-01  0.600000E-01  0.100000E-01
     1          7     1     2  0.700000E-01  0.700000E-01  0.100000E-01
     1          7     2     2  0.700000E-01  0.700000E-01  0.100000E-01
     1          7     2     2  0.700000E-01  0.700000E-01  0.100000E-01
     1          7     2     2  0.700000E-01  0.700000E-01  0.100000E-01
     1          8     1     2  0.800000E-01  0.800000E-01  0.100000E-01
     1          8     2     2  0.800000E-01  0.800000E-01  0.100000E-01
     1          8     2     2  0.800000E-01  0.800000E-01  0.100000E-01
     1          8     2     2  0.800000E-01  0.800000E-01  0.100000E-01
     1          9     1     2  0.900000E-01  0.900000E-01  0.100000E-01
     1          9     2     2  0.900000E-01  0.900000E-01  0.100000E-01
     1          9     2     2  0.900000E-01  0.900000E-01  0.100000E-01
     1          9     2     2  0.900000E-01  0.900000E-01  0.100000E-01
     1         10     1     2  0.100000E+00  0.100000E+00  0.100000E-01
     1         10     2     2  0.100000E+00  0.100000E+00  0.100000E-01
     1         10     2     2  0.100000E+00  0.100000E+00  0.100000E-01
     1         10     2     2  0.100000E+00  0.100000E+00  0.100000E-01
     1         11     1     2  0.110000E+00  0.110000E+00  0.100000E-01
     1         11     2     2  0.110000E+00  0.110000E+00  0.100000E-01
     1         11     2     2  0.110000E+00  0.110000E+00  0.100000E-01
     1         11     2     2  0.110000E+00  0.110000E+00  0.100000E-01
     1         12     1     2  0.120000E+00  0.120000E+00  0.100000E-01
     1         12     2     2  0.120000E+00  0.120000E+00  0.100000E-01
     1         12     2     2  0.120000E+00  0.120000E+00  0.100000E-01
     1         13     1     2  0.130000E+00  0.130000E+00  0.100000E-01
     1         13     2     2  0.130000E+00  0.130000E+00  0.100000E-01
     1         13     2     2  0.130000E+00  0.130000E+00  0.100000E-01
     1         13     2     2  0.130000E+00  0.130000E+00  0.100000E-01
     1         14     1     2  0.140000E+00  0.140000E+00  0.100000E-01
     1         14     2     2  0.140000E+00  0.140000E+00  0.100000E-01
     1         14     2     2  0.140000E+00  0.140000E+00  0.100000E-01
     1         14     2     2  0.140000E+00  0.140000E+00  0.100000E-01
     1         15     1     2  0.150000E+00  0.150000E+00  0.100000E-01
     1         15     2     2  0.150000E+00  0.150000E+00  0.100000E-01
     1         15     2     2  0.150000E+00  0.150000E+00  0.100000E-01
     1         16     1     2  0.160000E+00  0.160000E+00  0.100000E-01
     1         16     2     2  0.160000E+00  0.160000E+00  0.100000E-01
     1         16     2     2  0.160000E+00  0.160000E+00  0.100000E-01
     1         17     1     2  0.170000E+00  0.170000E+00  0.100000E-01
     1         17     2     2  0.170000E+00  0.170000E+00  0.100000E-01
     1         17     2     2  0.170000E+00  0.170000E+00  0.100000E-01
     1         18     1     2  0.180000E+00  0.180000E+00  0.100000E-01
     1         18     2     2  0.180000E+00  0.180000E+00  0.100000E-01
     1         18     2     2  0.180000E+00  0.180000E+00  0.100000E-01
     1         19     1     2  0.190000E+00  0.190000E+00  0.100000E-01
     1         19     2     2  0.190000E+00  0.190000E+00  0.100000E-01
     1         19     2     2  0.190000E+00  0.190000E+00  0.100000E-01
     1         20     1     2  0.200000E+00  0.200000E+00  0.100000E-01
     1         20     2     2  0.200000E+00  0.200000E+00  0.100000E-01
     1         20     2     2  0.200000E+00  0.200000E+00  0.100000E-01
     1         21     1     2  0.210000E+00  0.210000E+00  0.100000E-01
     1         21     2     2  0.210000E+00  0.210000E+00  0.100000E-01
     1         21     2     2  0.210000E+00  0.210000E+00  0.100000E-01
     1         22     1     2  0.220000E+00  0.220000E+00  0.100000E-01
     1         22     2     2  0.220000E+00  0.220000E+00  0.100000E-01
     1         22     2     2  0.220000E+00  0.220000E+00  0.100000E-01
     1         23     1     2  0.230000E+00  0.230000E+00  0.100000E-01
     1         23     2     2  0.230000E+00  0.230000E+00  0.100000E-01
     1         23     2     2  0.230000E+00  0.230000E+00  0.100000E-01
     1         24     1     2  0.240000E+00  0.240000E+00  0.100000E-01
     1         24     2     2  0.240000E+00  0.240000E+00  0.100000E-01
     1         24     2     2  0.240000E+00  0.240000E+00  0.100000E-01
     1         25     1     2  0.250000E+00  0.250000E+00  0.100000E-01
     1         25     2     2  0.250000E+00  0.250000E+00  0.100000E-01
     1         25     2     2  0.250000E+00  0.250000E+00  0.100000E-01
     1         26     1     2  0.260000E+00  0.260000E+00  0.100000E-01
     1         26     2     2  0.260000E+00  0.260000E+00  0.100000E-01
     1         26     2     2  0.260000E+00  0.260000E+00  0.100000E-01
     1         27     1     2  0.270000E+00  0.270000E+00  0.100000E-01
     1         27     2     2  0.270000E+00  0.270000E+00  0.100000E-01
     1         27     2     2  0.270000E+00  0.270000E+00  0.100000E-01
     1         28     1     2  0.280000E+00  0.280000E+00  0.100000E-01
     1         28     2     2  0.280000E+00  0.280000E+00  0.100000E-01
     1         28     2     2  0.280000E+00  0.280000E+00  0.100000E-01
     1         29     1     2  0.290000E+00  0.290000E+00  0.100000E-01
     1         29     2     2  0.290000E+00  0.290000E+00  0.100000E-01
     1         29     2     2  0.290000E+00  0.290000E+00  0.100000E-01
     1         30     1     2  0.300000E+00  0.300000E+00  0.100000E-01
     1         30     2     2  0.300000E+00  0.300000E+00  0.100000E-01
     1         30     2     2  0.300000E+00  0.300000E+00  0.100000E-01
     1         31     1     2  0.310000E+00  0.310000E+00  0.100000E-01
     1         31     2     2  0.310000E+00  0.310000E+00  0.100000E-01
     1         31     2     2  0.310000E+00  0.310000E+00  0.100000E-01
     1         32     1     2  0.320000E+00  0.320000E+00  0.100000E-01
     1         32     2     2  0.320000E+00  0.320000E+00  0.100000E-01
     1         32     2     2  0.320000E+00  0.320000E+00  0.100000E-01
     1         33     1     2  0.330000E+00  0.330000E+00  0.100000E-01
     1         33     2     2  0.330000E+00  0.330000E+00  0.100000E-01
     1         33     2     2  0.330000E+00  0.330000E+00  0.100000E-01
     1         34     1     2  0.340000E+00  0.340000E+00  0.100000E-01
     1         34     2     2  0.340000E+00  0.340000E+00  0.100000E-01
     1         34     2     2  0.340000E+00  0.340000E+00  0.100000E-01
     1         35     1     2  0.350000E+00  0.350000E+00  0.100000E-01
     1         35     2     2  0.350000E+00  0.350000E+00  0.100000E-01
     1         35     2     2  0.350000E+00  0.350000E+00  0.100000E-01
     1         36     1     2  0.360000E+00  0.360000E+00  0.100000E-01
     1         36     2     2  0.360000E+00  0.360000E+00  0.100000E-01
     1         36     2     2  0.360000E+00  0.360000E+00  0.100000E-01
     1         37     1     2  0.370000E+00  0.370000E+00  0.100000E-01
     1         37     2     2  0.370000E+00  0.370000E+00  0.100000E-01
     1         37     2     2  0.370000E+00  0.370000E+00  0.100000E-01
     1         38     1     2  0.380000E+00  0.380000E+00  0.100000E-01
     1         38     2     2  0.380000E+00  0.380000E+00  0.100000E-01
     1         38     2     2  0.380000E+00  0.380000E+00  0.100000E-01
     1         39     1     2  0.390000E+00  0.390000E+00  0.100000E-01
     1         39     2     2  0.390000E+00  0.390000E+00  0.100000E-01
     1         39     2     2  0.390000E+00  0.390000E+00  0.100000E-01
     1         40     1     2  0.400000E+00  0.400000E+00  0.100000E-01
     1         40     2     2  0.400000E+00  0.400000E+00  0.100000E-01
     1         40     2     2  0.400000E+00  0.400000E+00  0.100000E-01
     1         41     1     2  0.410000E+00  0.410000E+00  0.100000E-01
     1         41     2     2  0.410000E+00  0.410000E+00  0.100000E-01
     1         41     2     2  0.410000E+00  0.410000E+00  0.100000E-01
     1         42     1     2  0.420000E+00  0.420000E+00  0.100000E-01
     1         42     2     2  0.420000E+00  0.420000E+00  0.100000E-01
     1         42     2     2  0.420000E+00  0.420000E+00  0.100000E-01
     1         43     1     2  0.430000E+00  0.430000E+00  0.100000E-01
     1         43     2     2  0.430000E+00  0.430000E+00  0.100000E-01
     1         43     2     2  0.430000E+00  0.430000E+00  0.100000E-01
     1         44     1     2  0.440000E+00  0.440000E+00  0.100000E-01
     1         44     2     2  0.440000E+00  0.440000E+00  0.100000E-01
     1         44     2     2  0.440000E+00  0.440000E+00  0.100000E-01
     1         45     1     2  0.450000E+00  0.450000E+00  0.100000E-01
     1         45     2     2  0.450000E+00  0.450000E+00  0.100000E-01
     1         45     2     2  0.450000E+00  0.450000E+00  0.100000E-01
     1         46     1     2  0.460000E+00  0.460000E+00  0.100000E-01
     1         46     2     2  0.460000E+00  0.460000E+00  0.100000E-01
     1         46     2     2  0.460000E+00  0.460000E+00  0.100000E-01
     1         47     1     2  0.470000E+00  0.470000E+00  0.100000E-01
     1         47     2     2  0.470000E+00  0.470000E+00  0.100000E-01
     1         47     2     2  0.470000E+00  0.470000E+00  0.100000E-01
     1         48     1     2  0.480000E+00  0.480000E+00  0.100000E-01
     1         48     2     2  0.480000E+00  0.480000E+00  0.100000E-01
     1         48     2     2  0.480000E+00  0.480000E+00  0.100000E-01
     1         49     1     2  0.490000E+00  0.490000E+00  0.100000E-01
     1         49     2     2  0.490000E+00  0.490000E+00  0.100000E-01
     1         49     2     2  0.490000E+00  0.490000E+00  0.100000E-01
     1         50     1     2  0.500000E+00  0.500000E+00  0.100000E-01
     1         50     2     2  0.500000E+00  0.500000E+00  0.100000E-01
     1         50     2     2  0.500000E+00  0.500000E+00  0.100000E-01
